/*--------------------------------*- C++ -*----------------------------------*\n| =========                 |                                                 |
| \      /  F ield         | OpenFOAM: The Open Source CFD Toolbox           |
|  \    /   O peration     | Version:  5                                     |
|   \  /    A nd           | Web:      www.OpenFOAM.org                      |
|    \/     M anipulation  |                                                 |
\*---------------------------------------------------------------------------*/
FoamFile
{
    version     2.0;
    format      ascii;
    class       volVectorField;
    object      U;
}
// * * * * * * * * * * * * * * * * * * * * * * * * * * * * * * * * * * * * * //

dimensions      [0 1 -1 0 0 0 0];

internalField   uniform (26.86386881463511 -4.6110126852521995 0);

boundaryField
{
    inlet
    {
        type            freestream;
        freestreamValue uniform (26.86386881463511 -4.6110126852521995 0);
    }

    outlet
    {
        type            freestream;
        freestreamValue uniform (26.86386881463511 -4.6110126852521995 0);
    }

    walls
    {
        type            noSlip;
    }

    frontAndBack
    {
        type            empty;
    }
}

// ************************************************************************* //
