
FoamFile
{
 version 2.0;
 format ascii;
 class dictionary;
 object blockMeshDict;
}
convertToMeters 1;

geometry
{
}

vertices
( ( 0      0      0)
 ( 1      0      0)
 ( 1     12      0)
 ( -11    0       0)
 ( 0     0      0.3)
 ( 1     0      0.3)
 ( 1    12      0.3)
 ( -11     0      0.3)
 ( 21    0      0)
 ( 21    12      0)
 ( 21    0     0.3)
 ( 21    12     0.3)
 ( 1    -12     0)
 ( 1    -12     0.3)
 ( 21    -12      0)
 ( 21    -12     0.3)
 (  1     0      0)
 (  1     0     0.3)
);
blocks
(
 hex (0 1 2 3 4 5 6 7) (82 91 1)
 edgeGrading
 (
     (
         ( 0.4 0.512195 3.5 )
         ( 0.6 0.487805 1.16667 )
     )
         0.03 0.03
     (
         ( 0.4 0.512195 3.5 )
         ( 0.6 0.487805 1.16667 )
     )
     (
         ( 0.00833333 0.461538 2116.47 )
         ( 0.991667 0.538462 47.2485 )
     )
     (
         ( 0.00833333 0.461538 2116.47 )
         ( 0.991667 0.538462 47.2485 )
     )
     (
         ( 0.00833333 0.461538 2116.47 )
         ( 0.991667 0.538462 47.2485 )
     )
     (
         ( 0.00833333 0.461538 2116.47 )
         ( 0.991667 0.538462 47.2485 )
     )
     1  1  1  1 )
 hex ( 1 8 9 2 5 10 11 6 ) ( 148 91 1 )
 edgeGrading
 (
 33.3333 33.3333 33.3333 33.3333      (
         ( 0.00833333 0.461538 2116.47 )
         ( 0.991667 0.538462 47.2485 )
     )
 87.7471 87.7471 
     (
         ( 0.00833333 0.461538 2116.47 )
         ( 0.991667 0.538462 47.2485 )
     )
 1 1 1 1 
 )
 hex (3 12 16 0 7 13 17 4) (82 91 1)
 edgeGrading
 (
 0.03      (
         ( 0.4 0.512195 3.5 )
         ( 0.6 0.487805 1.16667 )
     )
     (
         ( 0.4 0.512195 3.5 )
         ( 0.6 0.487805 1.16667 )
     )
 0.03      (
         ( 0.991667 0.538462 0.0211647 )
         ( 0.00833333 0.461538 0.000472485 )
     )
     (
         ( 0.991667 0.538462 0.0211647 )
         ( 0.00833333 0.461538 0.000472485 )
     )
     (
         ( 0.991667 0.538462 0.0211647 )
         ( 0.00833333 0.461538 0.000472485 )
     )
     (
         ( 0.991667 0.538462 0.0211647 )
         ( 0.00833333 0.461538 0.000472485 )
     )
  1 1 1 1 
 )

 hex ( 12 14 8 16 13 15 10 17 ) ( 148 91 1 ) 
 edgeGrading
 (
 33.3333 33.3333 33.3333 33.3333 
     (
         ( 0.991667 0.538462 0.0211647 )
         ( 0.00833333 0.461538 0.000472485 )
     )
 0.0113964 0.0113964 
     (
         ( 0.991667 0.538462 0.0211647 )
         ( 0.00833333 0.461538 0.000472485 )
     )
  1 1 1 1 
 )
);

edges
(
 arc 3 2 ( -7.48528 8.48528 0 )
 arc 7 6 ( -7.48528 8.48528 0.3 )
 spline 1 0 
 (
     ( 1 -8.13929e-18 0 ) 
     ( 0.999014 7.63658e-05 0 ) 
     ( 0.996059 0.000304513 0 ) 
     ( 0.991148 0.000681618 0 ) 
     ( 0.984298 0.00120306 0 ) 
     ( 0.975538 0.00186252 0 ) 
     ( 0.964902 0.00265217 0 ) 
     ( 0.952432 0.00356282 0 ) 
     ( 0.938175 0.00458417 0 ) 
     ( 0.92219 0.00570494 0 ) 
     ( 0.904538 0.00691318 0 ) 
     ( 0.885289 0.00819635 0 ) 
     ( 0.864518 0.0095416 0 ) 
     ( 0.842308 0.0109358 0 ) 
     ( 0.818746 0.0123657 0 ) 
     ( 0.793924 0.0138181 0 ) 
     ( 0.767941 0.0152797 0 ) 
     ( 0.740899 0.0167372 0 ) 
     ( 0.712905 0.0181772 0 ) 
     ( 0.684068 0.0195864 0 ) 
     ( 0.654507 0.0209525 0 ) 
     ( 0.624341 0.0222717 0 ) 
     ( 0.593683 0.0235332 0 ) 
     ( 0.562655 0.0247236 0 ) 
     ( 0.531379 0.0258292 0 ) 
     ( 0.499979 0.0268365 0 ) 
     ( 0.468579 0.0277317 0 ) 
     ( 0.437303 0.0285013 0 ) 
     ( 0.406274 0.029132 0 ) 
     ( 0.375615 0.0296113 0 ) 
     ( 0.345447 0.0299278 0 ) 
     ( 0.315888 0.030071 0 ) 
     ( 0.287057 0.0300322 0 ) 
     ( 0.259066 0.0298045 0 ) 
     ( 0.232027 0.0293828 0 ) 
     ( 0.206045 0.0287645 0 ) 
     ( 0.181224 0.0279491 0 ) 
     ( 0.157662 0.0269386 0 ) 
     ( 0.135451 0.0257374 0 ) 
     ( 0.11468 0.0243517 0 ) 
     ( 0.0954298 0.0227902 0 ) 
     ( 0.0777772 0.0210628 0 ) 
     ( 0.0617915 0.019181 0 ) 
     ( 0.047536 0.0171569 0 ) 
     ( 0.0350666 0.0150031 0 ) 
     ( 0.0244328 0.0127323 0 ) 
     ( 0.0156762 0.0103565 0 ) 
     ( 0.00883157 0.00788659 0 ) 
     ( 0.00392574 0.00533227 0 ) 
 )

 spline 5 4 
 (
     ( 1 -8.13929e-18 0.3 ) 
     ( 0.999014 7.63658e-05 0.3 ) 
     ( 0.996059 0.000304513 0.3 ) 
     ( 0.991148 0.000681618 0.3 ) 
     ( 0.984298 0.00120306 0.3 ) 
     ( 0.975538 0.00186252 0.3 ) 
     ( 0.964902 0.00265217 0.3 ) 
     ( 0.952432 0.00356282 0.3 ) 
     ( 0.938175 0.00458417 0.3 ) 
     ( 0.92219 0.00570494 0.3 ) 
     ( 0.904538 0.00691318 0.3 ) 
     ( 0.885289 0.00819635 0.3 ) 
     ( 0.864518 0.0095416 0.3 ) 
     ( 0.842308 0.0109358 0.3 ) 
     ( 0.818746 0.0123657 0.3 ) 
     ( 0.793924 0.0138181 0.3 ) 
     ( 0.767941 0.0152797 0.3 ) 
     ( 0.740899 0.0167372 0.3 ) 
     ( 0.712905 0.0181772 0.3 ) 
     ( 0.684068 0.0195864 0.3 ) 
     ( 0.654507 0.0209525 0.3 ) 
     ( 0.624341 0.0222717 0.3 ) 
     ( 0.593683 0.0235332 0.3 ) 
     ( 0.562655 0.0247236 0.3 ) 
     ( 0.531379 0.0258292 0.3 ) 
     ( 0.499979 0.0268365 0.3 ) 
     ( 0.468579 0.0277317 0.3 ) 
     ( 0.437303 0.0285013 0.3 ) 
     ( 0.406274 0.029132 0.3 ) 
     ( 0.375615 0.0296113 0.3 ) 
     ( 0.345447 0.0299278 0.3 ) 
     ( 0.315888 0.030071 0.3 ) 
     ( 0.287057 0.0300322 0.3 ) 
     ( 0.259066 0.0298045 0.3 ) 
     ( 0.232027 0.0293828 0.3 ) 
     ( 0.206045 0.0287645 0.3 ) 
     ( 0.181224 0.0279491 0.3 ) 
     ( 0.157662 0.0269386 0.3 ) 
     ( 0.135451 0.0257374 0.3 ) 
     ( 0.11468 0.0243517 0.3 ) 
     ( 0.0954298 0.0227902 0.3 ) 
     ( 0.0777772 0.0210628 0.3 ) 
     ( 0.0617915 0.019181 0.3 ) 
     ( 0.047536 0.0171569 0.3 ) 
     ( 0.0350666 0.0150031 0.3 ) 
     ( 0.0244328 0.0127323 0.3 ) 
     ( 0.0156762 0.0103565 0.3 ) 
     ( 0.00883157 0.00788659 0.3 ) 
     ( 0.00392574 0.00533227 0.3 ) 
 )

 arc 3 12 ( -7.48528 -8.48528 0 ) 
 arc 7 13 ( -7.48528 -8.48528 0.3 ) 

 spline 0 16 
 (
     ( 0 0 0 ) 
     ( 0.000995253 -0.00269513 0 ) 
     ( 0.00395956 -0.00530713 0 ) 
     ( 0.00888117 -0.00783032 0 ) 
     ( 0.0157406 -0.0102572 0 ) 
     ( 0.0245107 -0.0125787 0 ) 
     ( 0.0351569 -0.0147845 0 ) 
     ( 0.047637 -0.0168633 0 ) 
     ( 0.0619018 -0.0188037 0 ) 
     ( 0.0778949 -0.020594 0 ) 
     ( 0.0955532 -0.0222231 0 ) 
     ( 0.114807 -0.0236809 0 ) 
     ( 0.13558 -0.0249585 0 ) 
     ( 0.157791 -0.026049 0 ) 
     ( 0.181352 -0.026947 0 ) 
     ( 0.20617 -0.0276497 0 ) 
     ( 0.232147 -0.0281564 0 ) 
     ( 0.25918 -0.0284688 0 ) 
     ( 0.287164 -0.0285908 0 ) 
     ( 0.315987 -0.0285285 0 ) 
     ( 0.345536 -0.0282899 0 ) 
     ( 0.375695 -0.0278847 0 ) 
     ( 0.406345 -0.0273242 0 ) 
     ( 0.437364 -0.0266205 0 ) 
     ( 0.46863 -0.0257867 0 ) 
     ( 0.500021 -0.0248364 0 ) 
     ( 0.531411 -0.0237835 0 ) 
     ( 0.562678 -0.0226418 0 ) 
     ( 0.593699 -0.0214249 0 ) 
     ( 0.624349 -0.0201463 0 ) 
     ( 0.65451 -0.018819 0 ) 
     ( 0.684056 -0.0174575 0 ) 
     ( 0.712875 -0.0160829 0 ) 
     ( 0.740855 -0.0147072 0 ) 
     ( 0.767886 -0.0133405 0 ) 
     ( 0.793861 -0.0119928 0 ) 
     ( 0.818678 -0.0106734 0 ) 
     ( 0.842239 -0.00939174 0 ) 
     ( 0.864451 -0.00815692 0 ) 
     ( 0.885225 -0.00697796 0 ) 
     ( 0.904479 -0.00586376 0 ) 
     ( 0.922138 -0.00482305 0 ) 
     ( 0.938131 -0.00386436 0 ) 
     ( 0.952395 -0.0029959 0 ) 
     ( 0.964874 -0.00222541 0 ) 
     ( 0.975518 -0.00156006 0 ) 
     ( 0.984285 -0.00100626 0 ) 
     ( 0.99114 -0.000569493 0 ) 
     ( 0.996056 -0.000254224 0 ) 
 )

 spline 4 17 
 (
     ( 0 0 0.3 ) 
     ( 0.000995253 -0.00269513 0.3 ) 
     ( 0.00395956 -0.00530713 0.3 ) 
     ( 0.00888117 -0.00783032 0.3 ) 
     ( 0.0157406 -0.0102572 0.3 ) 
     ( 0.0245107 -0.0125787 0.3 ) 
     ( 0.0351569 -0.0147845 0.3 ) 
     ( 0.047637 -0.0168633 0.3 ) 
     ( 0.0619018 -0.0188037 0.3 ) 
     ( 0.0778949 -0.020594 0.3 ) 
     ( 0.0955532 -0.0222231 0.3 ) 
     ( 0.114807 -0.0236809 0.3 ) 
     ( 0.13558 -0.0249585 0.3 ) 
     ( 0.157791 -0.026049 0.3 ) 
     ( 0.181352 -0.026947 0.3 ) 
     ( 0.20617 -0.0276497 0.3 ) 
     ( 0.232147 -0.0281564 0.3 ) 
     ( 0.25918 -0.0284688 0.3 ) 
     ( 0.287164 -0.0285908 0.3 ) 
     ( 0.315987 -0.0285285 0.3 ) 
     ( 0.345536 -0.0282899 0.3 ) 
     ( 0.375695 -0.0278847 0.3 ) 
     ( 0.406345 -0.0273242 0.3 ) 
     ( 0.437364 -0.0266205 0.3 ) 
     ( 0.46863 -0.0257867 0.3 ) 
     ( 0.500021 -0.0248364 0.3 ) 
     ( 0.531411 -0.0237835 0.3 ) 
     ( 0.562678 -0.0226418 0.3 ) 
     ( 0.593699 -0.0214249 0.3 ) 
     ( 0.624349 -0.0201463 0.3 ) 
     ( 0.65451 -0.018819 0.3 ) 
     ( 0.684056 -0.0174575 0.3 ) 
     ( 0.712875 -0.0160829 0.3 ) 
     ( 0.740855 -0.0147072 0.3 ) 
     ( 0.767886 -0.0133405 0.3 ) 
     ( 0.793861 -0.0119928 0.3 ) 
     ( 0.818678 -0.0106734 0.3 ) 
     ( 0.842239 -0.00939174 0.3 ) 
     ( 0.864451 -0.00815692 0.3 ) 
     ( 0.885225 -0.00697796 0.3 ) 
     ( 0.904479 -0.00586376 0.3 ) 
     ( 0.922138 -0.00482305 0.3 ) 
     ( 0.938131 -0.00386436 0.3 ) 
     ( 0.952395 -0.0029959 0.3 ) 
     ( 0.964874 -0.00222541 0.3 ) 
     ( 0.975518 -0.00156006 0.3 ) 
     ( 0.984285 -0.00100626 0.3 ) 
     ( 0.99114 -0.000569493 0.3 ) 
     ( 0.996056 -0.000254224 0.3 ) 
 )

);

faces
(
);

faces
(
);

defaultPatch
{
 name frontAndBack;
 type empty;
}

boundary
(
inlet
 {
     type patch; 
     faces 
     ( 
         ( 9 2 6 11 ) 
         ( 2 3 7 6 ) 
         ( 3 12 13 7 ) 
         ( 12 15 14 13 ) 
     ); 
 }

outlet
 {
     type patch; 
     faces 
     (
         ( 8 9 10 11 ) 
         ( 15 8 10 14 ) 
     );
 }

walls
 {
     type wall;
     faces
     (
         ( 0 1 5 4 )
         ( 0 4 17 16 )
     );
 }

interface1
 {
     type patch;
     faces
     (
         ( 1 8 10 5 )
     );
 }
interface2
 {
     type patch;
     faces
     (
         ( 16 17 10 8 )
     );
 }
);
mergePatchPairs
(
 ( interface1 interface2 )
);
