
FoamFile
{
 version 2.0;
 format ascii;
 class dictionary;
 object blockMeshDict;
}
convertToMeters 1;

geometry
{
}

vertices
( ( 0      0      0)
 ( 1      0      0)
 ( 1     12      0)
 ( -11    0       0)
 ( 0     0      0.3)
 ( 1     0      0.3)
 ( 1    12      0.3)
 ( -11     0      0.3)
 ( 21    0      0)
 ( 21    12      0)
 ( 21    0     0.3)
 ( 21    12     0.3)
 ( 1    -12     0)
 ( 1    -12     0.3)
 ( 21    -12      0)
 ( 21    -12     0.3)
 (  1     0      0)
 (  1     0     0.3)
);
blocks
(
 hex (0 1 2 3 4 5 6 7) (41 48 1)
 edgeGrading
 (
     (
         ( 0.4 0.512195 3.5 )
         ( 0.6 0.487805 1.16667 )
     )
         0.03 0.03
     (
         ( 0.4 0.512195 3.5 )
         ( 0.6 0.487805 1.16667 )
     )
     (
         ( 0.0416667 0.354167 22.1861 )
         ( 0.958333 0.645833 9.01465 )
     )
     (
         ( 0.0416667 0.354167 22.1861 )
         ( 0.958333 0.645833 9.01465 )
     )
     (
         ( 0.0416667 0.354167 22.1861 )
         ( 0.958333 0.645833 9.01465 )
     )
     (
         ( 0.0416667 0.354167 22.1861 )
         ( 0.958333 0.645833 9.01465 )
     )
     1  1  1  1 )
 hex ( 1 8 9 2 5 10 11 6 ) ( 74 48 1 )
 edgeGrading
 (
 33.3333 33.3333 33.3333 33.3333      (
         ( 0.0416667 0.354167 22.1861 )
         ( 0.958333 0.645833 9.01465 )
     )
 13.9582 13.9582 
     (
         ( 0.0416667 0.354167 22.1861 )
         ( 0.958333 0.645833 9.01465 )
     )
 1 1 1 1 
 )
 hex (3 12 16 0 7 13 17 4) (41 48 1)
 edgeGrading
 (
 0.03      (
         ( 0.4 0.512195 3.5 )
         ( 0.6 0.487805 1.16667 )
     )
     (
         ( 0.4 0.512195 3.5 )
         ( 0.6 0.487805 1.16667 )
     )
 0.03      (
         ( 0.958333 0.645833 0.110931 )
         ( 0.0416667 0.354167 0.0450732 )
     )
     (
         ( 0.958333 0.645833 0.110931 )
         ( 0.0416667 0.354167 0.0450732 )
     )
     (
         ( 0.958333 0.645833 0.110931 )
         ( 0.0416667 0.354167 0.0450732 )
     )
     (
         ( 0.958333 0.645833 0.110931 )
         ( 0.0416667 0.354167 0.0450732 )
     )
  1 1 1 1 
 )

 hex ( 12 14 8 16 13 15 10 17 ) ( 74 48 1 ) 
 edgeGrading
 (
 33.3333 33.3333 33.3333 33.3333 
     (
         ( 0.958333 0.645833 0.110931 )
         ( 0.0416667 0.354167 0.0450732 )
     )
 0.0716427 0.0716427 
     (
         ( 0.958333 0.645833 0.110931 )
         ( 0.0416667 0.354167 0.0450732 )
     )
  1 1 1 1 
 )
);

edges
(
 arc 3 2 ( -7.48528 8.48528 0 )
 arc 7 6 ( -7.48528 8.48528 0.3 )
 spline 1 0 
 (
     ( 1 -3.46324e-17 0 ) 
     ( 0.999018 0.000312597 0 ) 
     ( 0.996075 0.00124674 0 ) 
     ( 0.991182 0.00279156 0 ) 
     ( 0.984359 0.0049293 0 ) 
     ( 0.975632 0.00763573 0 ) 
     ( 0.965033 0.0108808 0 ) 
     ( 0.952604 0.0146294 0 ) 
     ( 0.938392 0.0188421 0 ) 
     ( 0.922453 0.0234757 0 ) 
     ( 0.904848 0.0284848 0 ) 
     ( 0.885645 0.0338216 0 ) 
     ( 0.864919 0.039437 0 ) 
     ( 0.84275 0.045281 0 ) 
     ( 0.819224 0.0513032 0 ) 
     ( 0.794434 0.0574527 0 ) 
     ( 0.768476 0.0636783 0 ) 
     ( 0.741452 0.0699285 0 ) 
     ( 0.713468 0.076151 0 ) 
     ( 0.684634 0.082293 0 ) 
     ( 0.655063 0.0883006 0 ) 
     ( 0.624871 0.0941187 0 ) 
     ( 0.594179 0.099691 0 ) 
     ( 0.563106 0.10496 0 ) 
     ( 0.531777 0.109867 0 ) 
     ( 0.500316 0.114353 0 ) 
     ( 0.468847 0.118358 0 ) 
     ( 0.437496 0.121824 0 ) 
     ( 0.406387 0.124695 0 ) 
     ( 0.375628 0.126916 0 ) 
     ( 0.345226 0.128415 0 ) 
     ( 0.315435 0.129136 0 ) 
     ( 0.286378 0.129042 0 ) 
     ( 0.258174 0.128107 0 ) 
     ( 0.230939 0.126313 0 ) 
     ( 0.204783 0.123652 0 ) 
     ( 0.179814 0.120127 0 ) 
     ( 0.156135 0.115749 0 ) 
     ( 0.13384 0.110542 0 ) 
     ( 0.113021 0.104538 0 ) 
     ( 0.0937595 0.0977763 0 ) 
     ( 0.0761334 0.0903048 0 ) 
     ( 0.0602118 0.0821761 0 ) 
     ( 0.0460565 0.0734463 0 ) 
     ( 0.0337217 0.0641729 0 ) 
     ( 0.0232541 0.0544126 0 ) 
     ( 0.0146923 0.0442195 0 ) 
     ( 0.00806701 0.0336429 0 ) 
     ( 0.00340121 0.0227256 0 ) 
 )

 spline 5 4 
 (
     ( 1 -3.46324e-17 0.3 ) 
     ( 0.999018 0.000312597 0.3 ) 
     ( 0.996075 0.00124674 0.3 ) 
     ( 0.991182 0.00279156 0.3 ) 
     ( 0.984359 0.0049293 0.3 ) 
     ( 0.975632 0.00763573 0.3 ) 
     ( 0.965033 0.0108808 0.3 ) 
     ( 0.952604 0.0146294 0.3 ) 
     ( 0.938392 0.0188421 0.3 ) 
     ( 0.922453 0.0234757 0.3 ) 
     ( 0.904848 0.0284848 0.3 ) 
     ( 0.885645 0.0338216 0.3 ) 
     ( 0.864919 0.039437 0.3 ) 
     ( 0.84275 0.045281 0.3 ) 
     ( 0.819224 0.0513032 0.3 ) 
     ( 0.794434 0.0574527 0.3 ) 
     ( 0.768476 0.0636783 0.3 ) 
     ( 0.741452 0.0699285 0.3 ) 
     ( 0.713468 0.076151 0.3 ) 
     ( 0.684634 0.082293 0.3 ) 
     ( 0.655063 0.0883006 0.3 ) 
     ( 0.624871 0.0941187 0.3 ) 
     ( 0.594179 0.099691 0.3 ) 
     ( 0.563106 0.10496 0.3 ) 
     ( 0.531777 0.109867 0.3 ) 
     ( 0.500316 0.114353 0.3 ) 
     ( 0.468847 0.118358 0.3 ) 
     ( 0.437496 0.121824 0.3 ) 
     ( 0.406387 0.124695 0.3 ) 
     ( 0.375628 0.126916 0.3 ) 
     ( 0.345226 0.128415 0.3 ) 
     ( 0.315435 0.129136 0.3 ) 
     ( 0.286378 0.129042 0.3 ) 
     ( 0.258174 0.128107 0.3 ) 
     ( 0.230939 0.126313 0.3 ) 
     ( 0.204783 0.123652 0.3 ) 
     ( 0.179814 0.120127 0.3 ) 
     ( 0.156135 0.115749 0.3 ) 
     ( 0.13384 0.110542 0.3 ) 
     ( 0.113021 0.104538 0.3 ) 
     ( 0.0937595 0.0977763 0.3 ) 
     ( 0.0761334 0.0903048 0.3 ) 
     ( 0.0602118 0.0821761 0.3 ) 
     ( 0.0460565 0.0734463 0.3 ) 
     ( 0.0337217 0.0641729 0.3 ) 
     ( 0.0232541 0.0544126 0.3 ) 
     ( 0.0146923 0.0442195 0.3 ) 
     ( 0.00806701 0.0336429 0.3 ) 
     ( 0.00340121 0.0227256 0.3 ) 
 )

 arc 3 12 ( -7.48528 -8.48528 0 ) 
 arc 7 13 ( -7.48528 -8.48528 0.3 ) 

 spline 0 16 
 (
     ( 0 0 0 ) 
     ( 0.00126343 -0.011455 0 ) 
     ( 0.00448409 -0.022536 0 ) 
     ( 0.00964574 -0.0332197 0 ) 
     ( 0.0167246 -0.0434757 0 ) 
     ( 0.0256894 -0.0532675 0 ) 
     ( 0.0365018 -0.0625538 0 ) 
     ( 0.0491165 -0.0712898 0 ) 
     ( 0.0634815 -0.0794295 0 ) 
     ( 0.0795386 -0.0869275 0 ) 
     ( 0.0972235 -0.0937404 0 ) 
     ( 0.116466 -0.0998293 0 ) 
     ( 0.137191 -0.105161 0 ) 
     ( 0.159318 -0.109709 0 ) 
     ( 0.182762 -0.113457 0 ) 
     ( 0.207432 -0.116395 0 ) 
     ( 0.233235 -0.118526 0 ) 
     ( 0.260072 -0.119859 0 ) 
     ( 0.287842 -0.120415 0 ) 
     ( 0.31644 -0.120224 0 ) 
     ( 0.345757 -0.119321 0 ) 
     ( 0.375682 -0.11775 0 ) 
     ( 0.406232 -0.115546 0 ) 
     ( 0.437171 -0.112738 0 ) 
     ( 0.468363 -0.109381 0 ) 
     ( 0.499684 -0.105533 0 ) 
     ( 0.531013 -0.101251 0 ) 
     ( 0.562227 -0.096594 0 ) 
     ( 0.593203 -0.0916188 0 ) 
     ( 0.623819 -0.0863816 0 ) 
     ( 0.653954 -0.0809369 0 ) 
     ( 0.683491 -0.0753372 0 ) 
     ( 0.712311 -0.069633 0 ) 
     ( 0.740301 -0.0638734 0 ) 
     ( 0.76735 -0.0581058 0 ) 
     ( 0.793351 -0.0523766 0 ) 
     ( 0.8182 -0.0467314 0 ) 
     ( 0.841797 -0.0412149 0 ) 
     ( 0.86405 -0.0358719 0 ) 
     ( 0.884868 -0.0307463 0 ) 
     ( 0.904169 -0.0258818 0 ) 
     ( 0.921875 -0.0213213 0 ) 
     ( 0.937914 -0.0171067 0 ) 
     ( 0.952223 -0.013278 0 ) 
     ( 0.964744 -0.00987328 0 ) 
     ( 0.975425 -0.00692732 0 ) 
     ( 0.984224 -0.00447129 0 ) 
     ( 0.991105 -0.00253189 0 ) 
     ( 0.99604 -0.00113068 0 ) 
 )

 spline 4 17 
 (
     ( 0 0 0.3 ) 
     ( 0.00126343 -0.011455 0.3 ) 
     ( 0.00448409 -0.022536 0.3 ) 
     ( 0.00964574 -0.0332197 0.3 ) 
     ( 0.0167246 -0.0434757 0.3 ) 
     ( 0.0256894 -0.0532675 0.3 ) 
     ( 0.0365018 -0.0625538 0.3 ) 
     ( 0.0491165 -0.0712898 0.3 ) 
     ( 0.0634815 -0.0794295 0.3 ) 
     ( 0.0795386 -0.0869275 0.3 ) 
     ( 0.0972235 -0.0937404 0.3 ) 
     ( 0.116466 -0.0998293 0.3 ) 
     ( 0.137191 -0.105161 0.3 ) 
     ( 0.159318 -0.109709 0.3 ) 
     ( 0.182762 -0.113457 0.3 ) 
     ( 0.207432 -0.116395 0.3 ) 
     ( 0.233235 -0.118526 0.3 ) 
     ( 0.260072 -0.119859 0.3 ) 
     ( 0.287842 -0.120415 0.3 ) 
     ( 0.31644 -0.120224 0.3 ) 
     ( 0.345757 -0.119321 0.3 ) 
     ( 0.375682 -0.11775 0.3 ) 
     ( 0.406232 -0.115546 0.3 ) 
     ( 0.437171 -0.112738 0.3 ) 
     ( 0.468363 -0.109381 0.3 ) 
     ( 0.499684 -0.105533 0.3 ) 
     ( 0.531013 -0.101251 0.3 ) 
     ( 0.562227 -0.096594 0.3 ) 
     ( 0.593203 -0.0916188 0.3 ) 
     ( 0.623819 -0.0863816 0.3 ) 
     ( 0.653954 -0.0809369 0.3 ) 
     ( 0.683491 -0.0753372 0.3 ) 
     ( 0.712311 -0.069633 0.3 ) 
     ( 0.740301 -0.0638734 0.3 ) 
     ( 0.76735 -0.0581058 0.3 ) 
     ( 0.793351 -0.0523766 0.3 ) 
     ( 0.8182 -0.0467314 0.3 ) 
     ( 0.841797 -0.0412149 0.3 ) 
     ( 0.86405 -0.0358719 0.3 ) 
     ( 0.884868 -0.0307463 0.3 ) 
     ( 0.904169 -0.0258818 0.3 ) 
     ( 0.921875 -0.0213213 0.3 ) 
     ( 0.937914 -0.0171067 0.3 ) 
     ( 0.952223 -0.013278 0.3 ) 
     ( 0.964744 -0.00987328 0.3 ) 
     ( 0.975425 -0.00692732 0.3 ) 
     ( 0.984224 -0.00447129 0.3 ) 
     ( 0.991105 -0.00253189 0.3 ) 
     ( 0.99604 -0.00113068 0.3 ) 
 )

);

faces
(
);

faces
(
);

defaultPatch
{
 name frontAndBack;
 type empty;
}

boundary
(
inlet
 {
     type patch; 
     faces 
     ( 
         ( 9 2 6 11 ) 
         ( 2 3 7 6 ) 
         ( 3 12 13 7 ) 
         ( 12 15 14 13 ) 
     ); 
 }

outlet
 {
     type patch; 
     faces 
     (
         ( 8 9 10 11 ) 
         ( 15 8 10 14 ) 
     );
 }

walls
 {
     type wall;
     faces
     (
         ( 0 1 5 4 )
         ( 0 4 17 16 )
     );
 }

interface1
 {
     type patch;
     faces
     (
         ( 1 8 10 5 )
     );
 }
interface2
 {
     type patch;
     faces
     (
         ( 16 17 10 8 )
     );
 }
);
mergePatchPairs
(
 ( interface1 interface2 )
);
