
FoamFile
{
 version 2.0;
 format ascii;
 class dictionary;
 object blockMeshDict;
}
convertToMeters 1;

geometry
{
}

vertices
( ( 0      0      0)
 ( 1      0      0)
 ( 1     12      0)
 ( -11    0       0)
 ( 0     0      0.3)
 ( 1     0      0.3)
 ( 1    12      0.3)
 ( -11     0      0.3)
 ( 21    0      0)
 ( 21    12      0)
 ( 21    0     0.3)
 ( 21    12     0.3)
 ( 1    -12     0)
 ( 1    -12     0.3)
 ( 21    -12      0)
 ( 21    -12     0.3)
 (  1     0      0)
 (  1     0     0.3)
);
blocks
(
 hex (0 1 2 3 4 5 6 7) (41 48 1)
 edgeGrading
 (
     (
         ( 0.4 0.512195 3.5 )
         ( 0.6 0.487805 1.16667 )
     )
         0.03 0.03
     (
         ( 0.4 0.512195 3.5 )
         ( 0.6 0.487805 1.16667 )
     )
     (
         ( 0.0416667 0.354167 22.1861 )
         ( 0.958333 0.645833 9.01465 )
     )
     (
         ( 0.0416667 0.354167 22.1861 )
         ( 0.958333 0.645833 9.01465 )
     )
     (
         ( 0.0416667 0.354167 22.1861 )
         ( 0.958333 0.645833 9.01465 )
     )
     (
         ( 0.0416667 0.354167 22.1861 )
         ( 0.958333 0.645833 9.01465 )
     )
     1  1  1  1 )
 hex ( 1 8 9 2 5 10 11 6 ) ( 74 48 1 )
 edgeGrading
 (
 33.3333 33.3333 33.3333 33.3333      (
         ( 0.0416667 0.354167 22.1861 )
         ( 0.958333 0.645833 9.01465 )
     )
 13.9582 13.9582 
     (
         ( 0.0416667 0.354167 22.1861 )
         ( 0.958333 0.645833 9.01465 )
     )
 1 1 1 1 
 )
 hex (3 12 16 0 7 13 17 4) (41 48 1)
 edgeGrading
 (
 0.03      (
         ( 0.4 0.512195 3.5 )
         ( 0.6 0.487805 1.16667 )
     )
     (
         ( 0.4 0.512195 3.5 )
         ( 0.6 0.487805 1.16667 )
     )
 0.03      (
         ( 0.958333 0.645833 0.110931 )
         ( 0.0416667 0.354167 0.0450732 )
     )
     (
         ( 0.958333 0.645833 0.110931 )
         ( 0.0416667 0.354167 0.0450732 )
     )
     (
         ( 0.958333 0.645833 0.110931 )
         ( 0.0416667 0.354167 0.0450732 )
     )
     (
         ( 0.958333 0.645833 0.110931 )
         ( 0.0416667 0.354167 0.0450732 )
     )
  1 1 1 1 
 )

 hex ( 12 14 8 16 13 15 10 17 ) ( 74 48 1 ) 
 edgeGrading
 (
 33.3333 33.3333 33.3333 33.3333 
     (
         ( 0.958333 0.645833 0.110931 )
         ( 0.0416667 0.354167 0.0450732 )
     )
 0.0716427 0.0716427 
     (
         ( 0.958333 0.645833 0.110931 )
         ( 0.0416667 0.354167 0.0450732 )
     )
  1 1 1 1 
 )
);

edges
(
 arc 3 2 ( -7.48528 8.48528 0 )
 arc 7 6 ( -7.48528 8.48528 0.3 )
 spline 1 0 
 (
     ( 1 -4.51331e-17 0 ) 
     ( 0.999041 0.000457472 0 ) 
     ( 0.996165 0.00182466 0 ) 
     ( 0.991384 0.00408601 0 ) 
     ( 0.984713 0.00721604 0 ) 
     ( 0.976174 0.01118 0 ) 
     ( 0.965797 0.0159346 0 ) 
     ( 0.953617 0.0214292 0 ) 
     ( 0.939676 0.0276068 0 ) 
     ( 0.924023 0.0344049 0 ) 
     ( 0.906714 0.0417572 0 ) 
     ( 0.887809 0.049594 0 ) 
     ( 0.867379 0.0578436 0 ) 
     ( 0.845495 0.0664325 0 ) 
     ( 0.822241 0.0752866 0 ) 
     ( 0.797701 0.0843308 0 ) 
     ( 0.771967 0.0934899 0 ) 
     ( 0.745138 0.102688 0 ) 
     ( 0.717315 0.111849 0 ) 
     ( 0.688605 0.120895 0 ) 
     ( 0.659119 0.12975 0 ) 
     ( 0.628972 0.138333 0 ) 
     ( 0.598281 0.146564 0 ) 
     ( 0.567169 0.154363 0 ) 
     ( 0.535759 0.161647 0 ) 
     ( 0.504176 0.168335 0 ) 
     ( 0.472548 0.174346 0 ) 
     ( 0.441003 0.1796 0 ) 
     ( 0.409669 0.18402 0 ) 
     ( 0.378676 0.187536 0 ) 
     ( 0.348151 0.190081 0 ) 
     ( 0.318221 0.191599 0 ) 
     ( 0.28901 0.192039 0 ) 
     ( 0.26064 0.191365 0 ) 
     ( 0.23323 0.189551 0 ) 
     ( 0.206895 0.186585 0 ) 
     ( 0.181744 0.182466 0 ) 
     ( 0.157883 0.177211 0 ) 
     ( 0.131793 0.170677 0 ) 
     ( 0.103331 0.16167 0 ) 
     ( 0.0780448 0.150363 0 ) 
     ( 0.0560827 0.137263 0 ) 
     ( 0.0375007 0.122849 0 ) 
     ( 0.0222815 0.107557 0 ) 
     ( 0.0103518 0.0917658 0 ) 
     ( 0.00159851 0.0757943 0 ) 
     ( -0.00411934 0.0598982 0 ) 
     ( -0.00696105 0.04427 0 ) 
     ( -0.00709877 0.0290404 0 ) 
 )

 spline 5 4 
 (
     ( 1 -4.51331e-17 0.3 ) 
     ( 0.999041 0.000457472 0.3 ) 
     ( 0.996165 0.00182466 0.3 ) 
     ( 0.991384 0.00408601 0.3 ) 
     ( 0.984713 0.00721604 0.3 ) 
     ( 0.976174 0.01118 0.3 ) 
     ( 0.965797 0.0159346 0.3 ) 
     ( 0.953617 0.0214292 0.3 ) 
     ( 0.939676 0.0276068 0.3 ) 
     ( 0.924023 0.0344049 0.3 ) 
     ( 0.906714 0.0417572 0.3 ) 
     ( 0.887809 0.049594 0.3 ) 
     ( 0.867379 0.0578436 0.3 ) 
     ( 0.845495 0.0664325 0.3 ) 
     ( 0.822241 0.0752866 0.3 ) 
     ( 0.797701 0.0843308 0.3 ) 
     ( 0.771967 0.0934899 0.3 ) 
     ( 0.745138 0.102688 0.3 ) 
     ( 0.717315 0.111849 0.3 ) 
     ( 0.688605 0.120895 0.3 ) 
     ( 0.659119 0.12975 0.3 ) 
     ( 0.628972 0.138333 0.3 ) 
     ( 0.598281 0.146564 0.3 ) 
     ( 0.567169 0.154363 0.3 ) 
     ( 0.535759 0.161647 0.3 ) 
     ( 0.504176 0.168335 0.3 ) 
     ( 0.472548 0.174346 0.3 ) 
     ( 0.441003 0.1796 0.3 ) 
     ( 0.409669 0.18402 0.3 ) 
     ( 0.378676 0.187536 0.3 ) 
     ( 0.348151 0.190081 0.3 ) 
     ( 0.318221 0.191599 0.3 ) 
     ( 0.28901 0.192039 0.3 ) 
     ( 0.26064 0.191365 0.3 ) 
     ( 0.23323 0.189551 0.3 ) 
     ( 0.206895 0.186585 0.3 ) 
     ( 0.181744 0.182466 0.3 ) 
     ( 0.157883 0.177211 0.3 ) 
     ( 0.131793 0.170677 0.3 ) 
     ( 0.103331 0.16167 0.3 ) 
     ( 0.0780448 0.150363 0.3 ) 
     ( 0.0560827 0.137263 0.3 ) 
     ( 0.0375007 0.122849 0.3 ) 
     ( 0.0222815 0.107557 0.3 ) 
     ( 0.0103518 0.0917658 0.3 ) 
     ( 0.00159851 0.0757943 0.3 ) 
     ( -0.00411934 0.0598982 0.3 ) 
     ( -0.00696105 0.04427 0.3 ) 
     ( -0.00709877 0.0290404 0.3 ) 
 )

 arc 3 12 ( -7.48528 -8.48528 0 ) 
 arc 7 13 ( -7.48528 -8.48528 0.3 ) 

 spline 0 16 
 (
     ( 0 0 0 ) 
     ( 0.00668784 -0.013466 0 ) 
     ( 0.0149841 -0.025822 0 ) 
     ( 0.0246738 -0.037165 0 ) 
     ( 0.0355362 -0.0476037 0 ) 
     ( 0.047345 -0.0572541 0 ) 
     ( 0.0598717 -0.0662324 0 ) 
     ( 0.0728915 -0.0746488 0 ) 
     ( 0.0861926 -0.0826004 0 ) 
     ( 0.0995894 -0.0901658 0 ) 
     ( 0.112938 -0.0974019 0 ) 
     ( 0.126156 -0.104346 0 ) 
     ( 0.139238 -0.111021 0 ) 
     ( 0.15757 -0.117324 0 ) 
     ( 0.180832 -0.122676 0 ) 
     ( 0.20532 -0.126993 0 ) 
     ( 0.230943 -0.130276 0 ) 
     ( 0.257606 -0.132536 0 ) 
     ( 0.285211 -0.133799 0 ) 
     ( 0.313655 -0.134098 0 ) 
     ( 0.342832 -0.133481 0 ) 
     ( 0.372634 -0.132002 0 ) 
     ( 0.402949 -0.129723 0 ) 
     ( 0.433664 -0.12671 0 ) 
     ( 0.464661 -0.123035 0 ) 
     ( 0.495824 -0.11877 0 ) 
     ( 0.527032 -0.113989 0 ) 
     ( 0.558164 -0.108765 0 ) 
     ( 0.5891 -0.103169 0 ) 
     ( 0.619718 -0.0972685 0 ) 
     ( 0.649898 -0.0911294 0 ) 
     ( 0.67952 -0.084814 0 ) 
     ( 0.708464 -0.0783819 0 ) 
     ( 0.736616 -0.0718894 0 ) 
     ( 0.763859 -0.0653909 0 ) 
     ( 0.790085 -0.0589386 0 ) 
     ( 0.815183 -0.0525836 0 ) 
     ( 0.839052 -0.0463759 0 ) 
     ( 0.86159 -0.0403648 0 ) 
     ( 0.882704 -0.0345993 0 ) 
     ( 0.902303 -0.0291277 0 ) 
     ( 0.920305 -0.023998 0 ) 
     ( 0.936631 -0.0192567 0 ) 
     ( 0.95121 -0.0149489 0 ) 
     ( 0.96398 -0.0111172 0 ) 
     ( 0.974883 -0.00780107 0 ) 
     ( 0.98387 -0.00503584 0 ) 
     ( 0.990903 -0.00285185 0 ) 
     ( 0.995949 -0.00127365 0 ) 
 )

 spline 4 17 
 (
     ( 0 0 0.3 ) 
     ( 0.00668784 -0.013466 0.3 ) 
     ( 0.0149841 -0.025822 0.3 ) 
     ( 0.0246738 -0.037165 0.3 ) 
     ( 0.0355362 -0.0476037 0.3 ) 
     ( 0.047345 -0.0572541 0.3 ) 
     ( 0.0598717 -0.0662324 0.3 ) 
     ( 0.0728915 -0.0746488 0.3 ) 
     ( 0.0861926 -0.0826004 0.3 ) 
     ( 0.0995894 -0.0901658 0.3 ) 
     ( 0.112938 -0.0974019 0.3 ) 
     ( 0.126156 -0.104346 0.3 ) 
     ( 0.139238 -0.111021 0.3 ) 
     ( 0.15757 -0.117324 0.3 ) 
     ( 0.180832 -0.122676 0.3 ) 
     ( 0.20532 -0.126993 0.3 ) 
     ( 0.230943 -0.130276 0.3 ) 
     ( 0.257606 -0.132536 0.3 ) 
     ( 0.285211 -0.133799 0.3 ) 
     ( 0.313655 -0.134098 0.3 ) 
     ( 0.342832 -0.133481 0.3 ) 
     ( 0.372634 -0.132002 0.3 ) 
     ( 0.402949 -0.129723 0.3 ) 
     ( 0.433664 -0.12671 0.3 ) 
     ( 0.464661 -0.123035 0.3 ) 
     ( 0.495824 -0.11877 0.3 ) 
     ( 0.527032 -0.113989 0.3 ) 
     ( 0.558164 -0.108765 0.3 ) 
     ( 0.5891 -0.103169 0.3 ) 
     ( 0.619718 -0.0972685 0.3 ) 
     ( 0.649898 -0.0911294 0.3 ) 
     ( 0.67952 -0.084814 0.3 ) 
     ( 0.708464 -0.0783819 0.3 ) 
     ( 0.736616 -0.0718894 0.3 ) 
     ( 0.763859 -0.0653909 0.3 ) 
     ( 0.790085 -0.0589386 0.3 ) 
     ( 0.815183 -0.0525836 0.3 ) 
     ( 0.839052 -0.0463759 0.3 ) 
     ( 0.86159 -0.0403648 0.3 ) 
     ( 0.882704 -0.0345993 0.3 ) 
     ( 0.902303 -0.0291277 0.3 ) 
     ( 0.920305 -0.023998 0.3 ) 
     ( 0.936631 -0.0192567 0.3 ) 
     ( 0.95121 -0.0149489 0.3 ) 
     ( 0.96398 -0.0111172 0.3 ) 
     ( 0.974883 -0.00780107 0.3 ) 
     ( 0.98387 -0.00503584 0.3 ) 
     ( 0.990903 -0.00285185 0.3 ) 
     ( 0.995949 -0.00127365 0.3 ) 
 )

);

faces
(
);

faces
(
);

defaultPatch
{
 name frontAndBack;
 type empty;
}

boundary
(
inlet
 {
     type patch; 
     faces 
     ( 
         ( 9 2 6 11 ) 
         ( 2 3 7 6 ) 
         ( 3 12 13 7 ) 
         ( 12 15 14 13 ) 
     ); 
 }

outlet
 {
     type patch; 
     faces 
     (
         ( 8 9 10 11 ) 
         ( 15 8 10 14 ) 
     );
 }

walls
 {
     type wall;
     faces
     (
         ( 0 1 5 4 )
         ( 0 4 17 16 )
     );
 }

interface1
 {
     type patch;
     faces
     (
         ( 1 8 10 5 )
     );
 }
interface2
 {
     type patch;
     faces
     (
         ( 16 17 10 8 )
     );
 }
);
mergePatchPairs
(
 ( interface1 interface2 )
);
