
FoamFile
{
 version 2.0;
 format ascii;
 class dictionary;
 object blockMeshDict;
}
convertToMeters 1;

geometry
{
}

vertices
( ( 0      0      0)
 ( 1      0      0)
 ( 1     12      0)
 ( -11    0       0)
 ( 0     0      0.3)
 ( 1     0      0.3)
 ( 1    12      0.3)
 ( -11     0      0.3)
 ( 21    0      0)
 ( 21    12      0)
 ( 21    0     0.3)
 ( 21    12     0.3)
 ( 1    -12     0)
 ( 1    -12     0.3)
 ( 21    -12      0)
 ( 21    -12     0.3)
 (  1     0      0)
 (  1     0     0.3)
);
blocks
(
 hex (0 1 2 3 4 5 6 7) (41 48 1)
 edgeGrading
 (
     (
         ( 0.4 0.512195 3.5 )
         ( 0.6 0.487805 1.16667 )
     )
         0.03 0.03
     (
         ( 0.4 0.512195 3.5 )
         ( 0.6 0.487805 1.16667 )
     )
     (
         ( 0.0416667 0.354167 22.1861 )
         ( 0.958333 0.645833 9.01465 )
     )
     (
         ( 0.0416667 0.354167 22.1861 )
         ( 0.958333 0.645833 9.01465 )
     )
     (
         ( 0.0416667 0.354167 22.1861 )
         ( 0.958333 0.645833 9.01465 )
     )
     (
         ( 0.0416667 0.354167 22.1861 )
         ( 0.958333 0.645833 9.01465 )
     )
     1  1  1  1 )
 hex ( 1 8 9 2 5 10 11 6 ) ( 74 48 1 )
 edgeGrading
 (
 33.3333 33.3333 33.3333 33.3333      (
         ( 0.0416667 0.354167 22.1861 )
         ( 0.958333 0.645833 9.01465 )
     )
 13.9582 13.9582 
     (
         ( 0.0416667 0.354167 22.1861 )
         ( 0.958333 0.645833 9.01465 )
     )
 1 1 1 1 
 )
 hex (3 12 16 0 7 13 17 4) (41 48 1)
 edgeGrading
 (
 0.03      (
         ( 0.4 0.512195 3.5 )
         ( 0.6 0.487805 1.16667 )
     )
     (
         ( 0.4 0.512195 3.5 )
         ( 0.6 0.487805 1.16667 )
     )
 0.03      (
         ( 0.958333 0.645833 0.110931 )
         ( 0.0416667 0.354167 0.0450732 )
     )
     (
         ( 0.958333 0.645833 0.110931 )
         ( 0.0416667 0.354167 0.0450732 )
     )
     (
         ( 0.958333 0.645833 0.110931 )
         ( 0.0416667 0.354167 0.0450732 )
     )
     (
         ( 0.958333 0.645833 0.110931 )
         ( 0.0416667 0.354167 0.0450732 )
     )
  1 1 1 1 
 )

 hex ( 12 14 8 16 13 15 10 17 ) ( 74 48 1 ) 
 edgeGrading
 (
 33.3333 33.3333 33.3333 33.3333 
     (
         ( 0.958333 0.645833 0.110931 )
         ( 0.0416667 0.354167 0.0450732 )
     )
 0.0716427 0.0716427 
     (
         ( 0.958333 0.645833 0.110931 )
         ( 0.0416667 0.354167 0.0450732 )
     )
  1 1 1 1 
 )
);

edges
(
 arc 3 2 ( -7.48528 8.48528 0 )
 arc 7 6 ( -7.48528 8.48528 0.3 )
 spline 1 0 
 (
     ( 1 -2.77269e-17 0 ) 
     ( 0.999024 0.000283436 0 ) 
     ( 0.9961 0.0011305 0 ) 
     ( 0.99124 0.00253157 0 ) 
     ( 0.98446 0.00447085 0 ) 
     ( 0.975786 0.0069268 0 ) 
     ( 0.965251 0.00987265 0 ) 
     ( 0.952894 0.013277 0 ) 
     ( 0.938762 0.0171045 0 ) 
     ( 0.922907 0.0213166 0 ) 
     ( 0.905391 0.0258721 0 ) 
     ( 0.886279 0.0307278 0 ) 
     ( 0.865644 0.0358394 0 ) 
     ( 0.843566 0.0411615 0 ) 
     ( 0.820129 0.0466479 0 ) 
     ( 0.795424 0.0522525 0 ) 
     ( 0.769546 0.0579286 0 ) 
     ( 0.742595 0.0636294 0 ) 
     ( 0.714678 0.0693077 0 ) 
     ( 0.685902 0.0749159 0 ) 
     ( 0.65638 0.0804059 0 ) 
     ( 0.626228 0.0857289 0 ) 
     ( 0.595566 0.0908357 0 ) 
     ( 0.564513 0.095676 0 ) 
     ( 0.533192 0.1002 0 ) 
     ( 0.501729 0.104356 0 ) 
     ( 0.470248 0.108096 0 ) 
     ( 0.438874 0.111369 0 ) 
     ( 0.407733 0.11413 0 ) 
     ( 0.376949 0.116334 0 ) 
     ( 0.346648 0.117941 0 ) 
     ( 0.316949 0.118916 0 ) 
     ( 0.287973 0.119228 0 ) 
     ( 0.259837 0.118854 0 ) 
     ( 0.232655 0.117778 0 ) 
     ( 0.206535 0.115994 0 ) 
     ( 0.181584 0.113501 0 ) 
     ( 0.157902 0.110307 0 ) 
     ( 0.135585 0.106431 0 ) 
     ( 0.113548 0.101849 0 ) 
     ( 0.0902786 0.0957365 0 ) 
     ( 0.0695739 0.0880739 0 ) 
     ( 0.0515187 0.0792385 0 ) 
     ( 0.036148 0.0695828 0 ) 
     ( 0.0234556 0.0594241 0 ) 
     ( 0.0134032 0.0490374 0 ) 
     ( 0.00592863 0.0386519 0 ) 
     ( 0.000951295 0.0284482 0 ) 
     ( -0.00162335 0.0185579 0 ) 
 )

 spline 5 4 
 (
     ( 1 -2.77269e-17 0.3 ) 
     ( 0.999024 0.000283436 0.3 ) 
     ( 0.9961 0.0011305 0.3 ) 
     ( 0.99124 0.00253157 0.3 ) 
     ( 0.98446 0.00447085 0.3 ) 
     ( 0.975786 0.0069268 0.3 ) 
     ( 0.965251 0.00987265 0.3 ) 
     ( 0.952894 0.013277 0.3 ) 
     ( 0.938762 0.0171045 0.3 ) 
     ( 0.922907 0.0213166 0.3 ) 
     ( 0.905391 0.0258721 0.3 ) 
     ( 0.886279 0.0307278 0.3 ) 
     ( 0.865644 0.0358394 0.3 ) 
     ( 0.843566 0.0411615 0.3 ) 
     ( 0.820129 0.0466479 0.3 ) 
     ( 0.795424 0.0522525 0.3 ) 
     ( 0.769546 0.0579286 0.3 ) 
     ( 0.742595 0.0636294 0.3 ) 
     ( 0.714678 0.0693077 0.3 ) 
     ( 0.685902 0.0749159 0.3 ) 
     ( 0.65638 0.0804059 0.3 ) 
     ( 0.626228 0.0857289 0.3 ) 
     ( 0.595566 0.0908357 0.3 ) 
     ( 0.564513 0.095676 0.3 ) 
     ( 0.533192 0.1002 0.3 ) 
     ( 0.501729 0.104356 0.3 ) 
     ( 0.470248 0.108096 0.3 ) 
     ( 0.438874 0.111369 0.3 ) 
     ( 0.407733 0.11413 0.3 ) 
     ( 0.376949 0.116334 0.3 ) 
     ( 0.346648 0.117941 0.3 ) 
     ( 0.316949 0.118916 0.3 ) 
     ( 0.287973 0.119228 0.3 ) 
     ( 0.259837 0.118854 0.3 ) 
     ( 0.232655 0.117778 0.3 ) 
     ( 0.206535 0.115994 0.3 ) 
     ( 0.181584 0.113501 0.3 ) 
     ( 0.157902 0.110307 0.3 ) 
     ( 0.135585 0.106431 0.3 ) 
     ( 0.113548 0.101849 0.3 ) 
     ( 0.0902786 0.0957365 0.3 ) 
     ( 0.0695739 0.0880739 0.3 ) 
     ( 0.0515187 0.0792385 0.3 ) 
     ( 0.036148 0.0695828 0.3 ) 
     ( 0.0234556 0.0594241 0.3 ) 
     ( 0.0134032 0.0490374 0.3 ) 
     ( 0.00592863 0.0386519 0.3 ) 
     ( 0.000951295 0.0284482 0.3 ) 
     ( -0.00162335 0.0185579 0.3 ) 
 )

 arc 3 12 ( -7.48528 -8.48528 0 ) 
 arc 7 13 ( -7.48528 -8.48528 0.3 ) 

 spline 0 16 
 (
     ( 0 0 0 ) 
     ( 0.00387475 -0.00840865 0 ) 
     ( 0.00950865 -0.0159726 0 ) 
     ( 0.0167615 -0.0227618 0 ) 
     ( 0.0254882 -0.028865 0 ) 
     ( 0.0355403 -0.0343865 0 ) 
     ( 0.046768 -0.0394408 0 ) 
     ( 0.0590249 -0.0441487 0 ) 
     ( 0.0721746 -0.0486324 0 ) 
     ( 0.0860982 -0.0530122 0 ) 
     ( 0.100704 -0.0574051 0 ) 
     ( 0.115939 -0.0619256 0 ) 
     ( 0.135446 -0.066443 0 ) 
     ( 0.15755 -0.0703807 0 ) 
     ( 0.180992 -0.0736947 0 ) 
     ( 0.20568 -0.076377 0 ) 
     ( 0.231519 -0.0784274 0 ) 
     ( 0.258409 -0.0798535 0 ) 
     ( 0.286248 -0.08067 0 ) 
     ( 0.314927 -0.0808987 0 ) 
     ( 0.344335 -0.0805677 0 ) 
     ( 0.374361 -0.0797104 0 ) 
     ( 0.404886 -0.0783644 0 ) 
     ( 0.435793 -0.0765708 0 ) 
     ( 0.466962 -0.0743728 0 ) 
     ( 0.498271 -0.0718149 0 ) 
     ( 0.529598 -0.0689417 0 ) 
     ( 0.560821 -0.0657976 0 ) 
     ( 0.591816 -0.0624257 0 ) 
     ( 0.622462 -0.0588676 0 ) 
     ( 0.652637 -0.0551631 0 ) 
     ( 0.682223 -0.0513501 0 ) 
     ( 0.711102 -0.0474646 0 ) 
     ( 0.739158 -0.043541 0 ) 
     ( 0.766281 -0.0396121 0 ) 
     ( 0.792362 -0.0357097 0 ) 
     ( 0.817295 -0.0318648 0 ) 
     ( 0.840981 -0.0281077 0 ) 
     ( 0.863325 -0.0244684 0 ) 
     ( 0.884235 -0.0209767 0 ) 
     ( 0.903626 -0.017662 0 ) 
     ( 0.921421 -0.0145535 0 ) 
     ( 0.937545 -0.0116797 0 ) 
     ( 0.951933 -0.00906793 0 ) 
     ( 0.964526 -0.00674435 0 ) 
     ( 0.975271 -0.00473303 0 ) 
     ( 0.984124 -0.00305555 0 ) 
     ( 0.991048 -0.00173049 0 ) 
     ( 0.996014 -0.000772883 0 ) 
 )

 spline 4 17 
 (
     ( 0 0 0.3 ) 
     ( 0.00387475 -0.00840865 0.3 ) 
     ( 0.00950865 -0.0159726 0.3 ) 
     ( 0.0167615 -0.0227618 0.3 ) 
     ( 0.0254882 -0.028865 0.3 ) 
     ( 0.0355403 -0.0343865 0.3 ) 
     ( 0.046768 -0.0394408 0.3 ) 
     ( 0.0590249 -0.0441487 0.3 ) 
     ( 0.0721746 -0.0486324 0.3 ) 
     ( 0.0860982 -0.0530122 0.3 ) 
     ( 0.100704 -0.0574051 0.3 ) 
     ( 0.115939 -0.0619256 0.3 ) 
     ( 0.135446 -0.066443 0.3 ) 
     ( 0.15755 -0.0703807 0.3 ) 
     ( 0.180992 -0.0736947 0.3 ) 
     ( 0.20568 -0.076377 0.3 ) 
     ( 0.231519 -0.0784274 0.3 ) 
     ( 0.258409 -0.0798535 0.3 ) 
     ( 0.286248 -0.08067 0.3 ) 
     ( 0.314927 -0.0808987 0.3 ) 
     ( 0.344335 -0.0805677 0.3 ) 
     ( 0.374361 -0.0797104 0.3 ) 
     ( 0.404886 -0.0783644 0.3 ) 
     ( 0.435793 -0.0765708 0.3 ) 
     ( 0.466962 -0.0743728 0.3 ) 
     ( 0.498271 -0.0718149 0.3 ) 
     ( 0.529598 -0.0689417 0.3 ) 
     ( 0.560821 -0.0657976 0.3 ) 
     ( 0.591816 -0.0624257 0.3 ) 
     ( 0.622462 -0.0588676 0.3 ) 
     ( 0.652637 -0.0551631 0.3 ) 
     ( 0.682223 -0.0513501 0.3 ) 
     ( 0.711102 -0.0474646 0.3 ) 
     ( 0.739158 -0.043541 0.3 ) 
     ( 0.766281 -0.0396121 0.3 ) 
     ( 0.792362 -0.0357097 0.3 ) 
     ( 0.817295 -0.0318648 0.3 ) 
     ( 0.840981 -0.0281077 0.3 ) 
     ( 0.863325 -0.0244684 0.3 ) 
     ( 0.884235 -0.0209767 0.3 ) 
     ( 0.903626 -0.017662 0.3 ) 
     ( 0.921421 -0.0145535 0.3 ) 
     ( 0.937545 -0.0116797 0.3 ) 
     ( 0.951933 -0.00906793 0.3 ) 
     ( 0.964526 -0.00674435 0.3 ) 
     ( 0.975271 -0.00473303 0.3 ) 
     ( 0.984124 -0.00305555 0.3 ) 
     ( 0.991048 -0.00173049 0.3 ) 
     ( 0.996014 -0.000772883 0.3 ) 
 )

);

faces
(
);

faces
(
);

defaultPatch
{
 name frontAndBack;
 type empty;
}

boundary
(
inlet
 {
     type patch; 
     faces 
     ( 
         ( 9 2 6 11 ) 
         ( 2 3 7 6 ) 
         ( 3 12 13 7 ) 
         ( 12 15 14 13 ) 
     ); 
 }

outlet
 {
     type patch; 
     faces 
     (
         ( 8 9 10 11 ) 
         ( 15 8 10 14 ) 
     );
 }

walls
 {
     type wall;
     faces
     (
         ( 0 1 5 4 )
         ( 0 4 17 16 )
     );
 }

interface1
 {
     type patch;
     faces
     (
         ( 1 8 10 5 )
     );
 }
interface2
 {
     type patch;
     faces
     (
         ( 16 17 10 8 )
     );
 }
);
mergePatchPairs
(
 ( interface1 interface2 )
);
