
FoamFile
{
 version 2.0;
 format ascii;
 class dictionary;
 object blockMeshDict;
}
convertToMeters 1;

geometry
{
}

vertices
( ( 0      0      0)
 ( 1      0      0)
 ( 1     12      0)
 ( -11    0       0)
 ( 0     0      0.3)
 ( 1     0      0.3)
 ( 1    12      0.3)
 ( -11     0      0.3)
 ( 21    0      0)
 ( 21    12      0)
 ( 21    0     0.3)
 ( 21    12     0.3)
 ( 1    -12     0)
 ( 1    -12     0.3)
 ( 21    -12      0)
 ( 21    -12     0.3)
 (  1     0      0)
 (  1     0     0.3)
);
blocks
(
 hex (0 1 2 3 4 5 6 7) (41 48 1)
 edgeGrading
 (
     (
         ( 0.4 0.512195 3.5 )
         ( 0.6 0.487805 1.16667 )
     )
         0.03 0.03
     (
         ( 0.4 0.512195 3.5 )
         ( 0.6 0.487805 1.16667 )
     )
     (
         ( 0.0416667 0.354167 22.1861 )
         ( 0.958333 0.645833 9.01465 )
     )
     (
         ( 0.0416667 0.354167 22.1861 )
         ( 0.958333 0.645833 9.01465 )
     )
     (
         ( 0.0416667 0.354167 22.1861 )
         ( 0.958333 0.645833 9.01465 )
     )
     (
         ( 0.0416667 0.354167 22.1861 )
         ( 0.958333 0.645833 9.01465 )
     )
     1  1  1  1 )
 hex ( 1 8 9 2 5 10 11 6 ) ( 74 48 1 )
 edgeGrading
 (
 33.3333 33.3333 33.3333 33.3333      (
         ( 0.0416667 0.354167 22.1861 )
         ( 0.958333 0.645833 9.01465 )
     )
 13.9582 13.9582 
     (
         ( 0.0416667 0.354167 22.1861 )
         ( 0.958333 0.645833 9.01465 )
     )
 1 1 1 1 
 )
 hex (3 12 16 0 7 13 17 4) (41 48 1)
 edgeGrading
 (
 0.03      (
         ( 0.4 0.512195 3.5 )
         ( 0.6 0.487805 1.16667 )
     )
     (
         ( 0.4 0.512195 3.5 )
         ( 0.6 0.487805 1.16667 )
     )
 0.03      (
         ( 0.958333 0.645833 0.110931 )
         ( 0.0416667 0.354167 0.0450732 )
     )
     (
         ( 0.958333 0.645833 0.110931 )
         ( 0.0416667 0.354167 0.0450732 )
     )
     (
         ( 0.958333 0.645833 0.110931 )
         ( 0.0416667 0.354167 0.0450732 )
     )
     (
         ( 0.958333 0.645833 0.110931 )
         ( 0.0416667 0.354167 0.0450732 )
     )
  1 1 1 1 
 )

 hex ( 12 14 8 16 13 15 10 17 ) ( 74 48 1 ) 
 edgeGrading
 (
 33.3333 33.3333 33.3333 33.3333 
     (
         ( 0.958333 0.645833 0.110931 )
         ( 0.0416667 0.354167 0.0450732 )
     )
 0.0716427 0.0716427 
     (
         ( 0.958333 0.645833 0.110931 )
         ( 0.0416667 0.354167 0.0450732 )
     )
  1 1 1 1 
 )
);

edges
(
 arc 3 2 ( -7.48528 8.48528 0 )
 arc 7 6 ( -7.48528 8.48528 0.3 )
 spline 1 0 
 (
     ( 1 -4.56346e-17 0 ) 
     ( 0.99905 0.000484809 0 ) 
     ( 0.996203 0.00193365 0 ) 
     ( 0.991467 0.0043299 0 ) 
     ( 0.984858 0.00764631 0 ) 
     ( 0.976395 0.0118457 0 ) 
     ( 0.966106 0.0168817 0 ) 
     ( 0.954023 0.0227001 0 ) 
     ( 0.940185 0.0292394 0 ) 
     ( 0.924638 0.0364328 0 ) 
     ( 0.907433 0.0442086 0 ) 
     ( 0.88863 0.0524918 0 ) 
     ( 0.868292 0.0612048 0 ) 
     ( 0.84649 0.0702683 0 ) 
     ( 0.823304 0.079602 0 ) 
     ( 0.798815 0.0891249 0 ) 
     ( 0.773115 0.0987556 0 ) 
     ( 0.746297 0.108412 0 ) 
     ( 0.718463 0.118013 0 ) 
     ( 0.689719 0.127476 0 ) 
     ( 0.660174 0.136716 0 ) 
     ( 0.629943 0.145652 0 ) 
     ( 0.599146 0.154197 0 ) 
     ( 0.567903 0.162268 0 ) 
     ( 0.536341 0.16978 0 ) 
     ( 0.504587 0.176647 0 ) 
     ( 0.472772 0.182787 0 ) 
     ( 0.441025 0.188119 0 ) 
     ( 0.409481 0.192567 0 ) 
     ( 0.378272 0.196059 0 ) 
     ( 0.34753 0.198531 0 ) 
     ( 0.317387 0.199926 0 ) 
     ( 0.287971 0.200198 0 ) 
     ( 0.259411 0.199313 0 ) 
     ( 0.22964 0.197143 0 ) 
     ( 0.198866 0.19304 0 ) 
     ( 0.169757 0.187006 0 ) 
     ( 0.142514 0.179197 0 ) 
     ( 0.117309 0.169789 0 ) 
     ( 0.0942871 0.158976 0 ) 
     ( 0.0735658 0.146956 0 ) 
     ( 0.0552326 0.133934 0 ) 
     ( 0.0393472 0.12011 0 ) 
     ( 0.0259432 0.105676 0 ) 
     ( 0.0150301 0.0908112 0 ) 
     ( 0.00659595 0.0756781 0 ) 
     ( 0.000609884 0.0604169 0 ) 
     ( -0.00297535 0.0451435 0 ) 
     ( -0.00422116 0.0299473 0 ) 
 )

 spline 5 4 
 (
     ( 1 -4.56346e-17 0.3 ) 
     ( 0.99905 0.000484809 0.3 ) 
     ( 0.996203 0.00193365 0.3 ) 
     ( 0.991467 0.0043299 0.3 ) 
     ( 0.984858 0.00764631 0.3 ) 
     ( 0.976395 0.0118457 0.3 ) 
     ( 0.966106 0.0168817 0.3 ) 
     ( 0.954023 0.0227001 0.3 ) 
     ( 0.940185 0.0292394 0.3 ) 
     ( 0.924638 0.0364328 0.3 ) 
     ( 0.907433 0.0442086 0.3 ) 
     ( 0.88863 0.0524918 0.3 ) 
     ( 0.868292 0.0612048 0.3 ) 
     ( 0.84649 0.0702683 0.3 ) 
     ( 0.823304 0.079602 0.3 ) 
     ( 0.798815 0.0891249 0.3 ) 
     ( 0.773115 0.0987556 0.3 ) 
     ( 0.746297 0.108412 0.3 ) 
     ( 0.718463 0.118013 0.3 ) 
     ( 0.689719 0.127476 0.3 ) 
     ( 0.660174 0.136716 0.3 ) 
     ( 0.629943 0.145652 0.3 ) 
     ( 0.599146 0.154197 0.3 ) 
     ( 0.567903 0.162268 0.3 ) 
     ( 0.536341 0.16978 0.3 ) 
     ( 0.504587 0.176647 0.3 ) 
     ( 0.472772 0.182787 0.3 ) 
     ( 0.441025 0.188119 0.3 ) 
     ( 0.409481 0.192567 0.3 ) 
     ( 0.378272 0.196059 0.3 ) 
     ( 0.34753 0.198531 0.3 ) 
     ( 0.317387 0.199926 0.3 ) 
     ( 0.287971 0.200198 0.3 ) 
     ( 0.259411 0.199313 0.3 ) 
     ( 0.22964 0.197143 0.3 ) 
     ( 0.198866 0.19304 0.3 ) 
     ( 0.169757 0.187006 0.3 ) 
     ( 0.142514 0.179197 0.3 ) 
     ( 0.117309 0.169789 0.3 ) 
     ( 0.0942871 0.158976 0.3 ) 
     ( 0.0735658 0.146956 0.3 ) 
     ( 0.0552326 0.133934 0.3 ) 
     ( 0.0393472 0.12011 0.3 ) 
     ( 0.0259432 0.105676 0.3 ) 
     ( 0.0150301 0.0908112 0.3 ) 
     ( 0.00659595 0.0756781 0.3 ) 
     ( 0.000609884 0.0604169 0.3 ) 
     ( -0.00297535 0.0451435 0.3 ) 
     ( -0.00422116 0.0299473 0.3 ) 
 )

 arc 3 12 ( -7.48528 -8.48528 0 ) 
 arc 7 13 ( -7.48528 -8.48528 0.3 ) 

 spline 0 16 
 (
     ( 0 0 0 ) 
     ( 0.00517447 -0.0143221 0 ) 
     ( 0.0121065 -0.0276955 0 ) 
     ( 0.0206881 -0.0401364 0 ) 
     ( 0.030807 -0.0516623 0 ) 
     ( 0.0423475 -0.0622917 0 ) 
     ( 0.0551934 -0.0720437 0 ) 
     ( 0.0692297 -0.080938 0 ) 
     ( 0.0843461 -0.0889955 0 ) 
     ( 0.100439 -0.0962386 0 ) 
     ( 0.117417 -0.102692 0 ) 
     ( 0.1352 -0.108384 0 ) 
     ( 0.153723 -0.113347 0 ) 
     ( 0.172939 -0.117621 0 ) 
     ( 0.192819 -0.121253 0 ) 
     ( 0.213349 -0.124298 0 ) 
     ( 0.234533 -0.126823 0 ) 
     ( 0.258835 -0.128823 0 ) 
     ( 0.286249 -0.129903 0 ) 
     ( 0.314489 -0.130035 0 ) 
     ( 0.343453 -0.129267 0 ) 
     ( 0.373038 -0.127658 0 ) 
     ( 0.403137 -0.125273 0 ) 
     ( 0.433641 -0.122183 0 ) 
     ( 0.464438 -0.11846 0 ) 
     ( 0.495413 -0.114178 0 ) 
     ( 0.526449 -0.109414 0 ) 
     ( 0.55743 -0.10424 0 ) 
     ( 0.588236 -0.098726 0 ) 
     ( 0.618747 -0.0929412 0 ) 
     ( 0.648843 -0.0869493 0 ) 
     ( 0.678406 -0.0808108 0 ) 
     ( 0.707316 -0.0745826 0 ) 
     ( 0.735457 -0.0683184 0 ) 
     ( 0.762712 -0.0620689 0 ) 
     ( 0.78897 -0.0558825 0 ) 
     ( 0.81412 -0.0498062 0 ) 
     ( 0.838057 -0.0438853 0 ) 
     ( 0.860677 -0.0381647 0 ) 
     ( 0.881884 -0.0326886 0 ) 
     ( 0.901584 -0.0275007 0 ) 
     ( 0.91969 -0.022644 0 ) 
     ( 0.936121 -0.0181609 0 ) 
     ( 0.950804 -0.014092 0 ) 
     ( 0.96367 -0.0104761 0 ) 
     ( 0.974661 -0.00734895 0 ) 
     ( 0.983725 -0.00474283 0 ) 
     ( 0.99082 -0.00268541 0 ) 
     ( 0.995912 -0.00119917 0 ) 
 )

 spline 4 17 
 (
     ( 0 0 0.3 ) 
     ( 0.00517447 -0.0143221 0.3 ) 
     ( 0.0121065 -0.0276955 0.3 ) 
     ( 0.0206881 -0.0401364 0.3 ) 
     ( 0.030807 -0.0516623 0.3 ) 
     ( 0.0423475 -0.0622917 0.3 ) 
     ( 0.0551934 -0.0720437 0.3 ) 
     ( 0.0692297 -0.080938 0.3 ) 
     ( 0.0843461 -0.0889955 0.3 ) 
     ( 0.100439 -0.0962386 0.3 ) 
     ( 0.117417 -0.102692 0.3 ) 
     ( 0.1352 -0.108384 0.3 ) 
     ( 0.153723 -0.113347 0.3 ) 
     ( 0.172939 -0.117621 0.3 ) 
     ( 0.192819 -0.121253 0.3 ) 
     ( 0.213349 -0.124298 0.3 ) 
     ( 0.234533 -0.126823 0.3 ) 
     ( 0.258835 -0.128823 0.3 ) 
     ( 0.286249 -0.129903 0.3 ) 
     ( 0.314489 -0.130035 0.3 ) 
     ( 0.343453 -0.129267 0.3 ) 
     ( 0.373038 -0.127658 0.3 ) 
     ( 0.403137 -0.125273 0.3 ) 
     ( 0.433641 -0.122183 0.3 ) 
     ( 0.464438 -0.11846 0.3 ) 
     ( 0.495413 -0.114178 0.3 ) 
     ( 0.526449 -0.109414 0.3 ) 
     ( 0.55743 -0.10424 0.3 ) 
     ( 0.588236 -0.098726 0.3 ) 
     ( 0.618747 -0.0929412 0.3 ) 
     ( 0.648843 -0.0869493 0.3 ) 
     ( 0.678406 -0.0808108 0.3 ) 
     ( 0.707316 -0.0745826 0.3 ) 
     ( 0.735457 -0.0683184 0.3 ) 
     ( 0.762712 -0.0620689 0.3 ) 
     ( 0.78897 -0.0558825 0.3 ) 
     ( 0.81412 -0.0498062 0.3 ) 
     ( 0.838057 -0.0438853 0.3 ) 
     ( 0.860677 -0.0381647 0.3 ) 
     ( 0.881884 -0.0326886 0.3 ) 
     ( 0.901584 -0.0275007 0.3 ) 
     ( 0.91969 -0.022644 0.3 ) 
     ( 0.936121 -0.0181609 0.3 ) 
     ( 0.950804 -0.014092 0.3 ) 
     ( 0.96367 -0.0104761 0.3 ) 
     ( 0.974661 -0.00734895 0.3 ) 
     ( 0.983725 -0.00474283 0.3 ) 
     ( 0.99082 -0.00268541 0.3 ) 
     ( 0.995912 -0.00119917 0.3 ) 
 )

);

faces
(
);

faces
(
);

defaultPatch
{
 name frontAndBack;
 type empty;
}

boundary
(
inlet
 {
     type patch; 
     faces 
     ( 
         ( 9 2 6 11 ) 
         ( 2 3 7 6 ) 
         ( 3 12 13 7 ) 
         ( 12 15 14 13 ) 
     ); 
 }

outlet
 {
     type patch; 
     faces 
     (
         ( 8 9 10 11 ) 
         ( 15 8 10 14 ) 
     );
 }

walls
 {
     type wall;
     faces
     (
         ( 0 1 5 4 )
         ( 0 4 17 16 )
     );
 }

interface1
 {
     type patch;
     faces
     (
         ( 1 8 10 5 )
     );
 }
interface2
 {
     type patch;
     faces
     (
         ( 16 17 10 8 )
     );
 }
);
mergePatchPairs
(
 ( interface1 interface2 )
);
