
FoamFile
{
 version 2.0;
 format ascii;
 class dictionary;
 object blockMeshDict;
}
convertToMeters 1;

geometry
{
}

vertices
( ( 0      0      0)
 ( 1      0      0)
 ( 1     12      0)
 ( -11    0       0)
 ( 0     0      0.3)
 ( 1     0      0.3)
 ( 1    12      0.3)
 ( -11     0      0.3)
 ( 21    0      0)
 ( 21    12      0)
 ( 21    0     0.3)
 ( 21    12     0.3)
 ( 1    -12     0)
 ( 1    -12     0.3)
 ( 21    -12      0)
 ( 21    -12     0.3)
 (  1     0      0)
 (  1     0     0.3)
);
blocks
(
 hex (0 1 2 3 4 5 6 7) (41 48 1)
 edgeGrading
 (
     (
         ( 0.4 0.512195 3.5 )
         ( 0.6 0.487805 1.16667 )
     )
         0.03 0.03
     (
         ( 0.4 0.512195 3.5 )
         ( 0.6 0.487805 1.16667 )
     )
     (
         ( 0.0416667 0.354167 22.1861 )
         ( 0.958333 0.645833 9.01465 )
     )
     (
         ( 0.0416667 0.354167 22.1861 )
         ( 0.958333 0.645833 9.01465 )
     )
     (
         ( 0.0416667 0.354167 22.1861 )
         ( 0.958333 0.645833 9.01465 )
     )
     (
         ( 0.0416667 0.354167 22.1861 )
         ( 0.958333 0.645833 9.01465 )
     )
     1  1  1  1 )
 hex ( 1 8 9 2 5 10 11 6 ) ( 74 48 1 )
 edgeGrading
 (
 33.3333 33.3333 33.3333 33.3333      (
         ( 0.0416667 0.354167 22.1861 )
         ( 0.958333 0.645833 9.01465 )
     )
 13.9582 13.9582 
     (
         ( 0.0416667 0.354167 22.1861 )
         ( 0.958333 0.645833 9.01465 )
     )
 1 1 1 1 
 )
 hex (3 12 16 0 7 13 17 4) (41 48 1)
 edgeGrading
 (
 0.03      (
         ( 0.4 0.512195 3.5 )
         ( 0.6 0.487805 1.16667 )
     )
     (
         ( 0.4 0.512195 3.5 )
         ( 0.6 0.487805 1.16667 )
     )
 0.03      (
         ( 0.958333 0.645833 0.110931 )
         ( 0.0416667 0.354167 0.0450732 )
     )
     (
         ( 0.958333 0.645833 0.110931 )
         ( 0.0416667 0.354167 0.0450732 )
     )
     (
         ( 0.958333 0.645833 0.110931 )
         ( 0.0416667 0.354167 0.0450732 )
     )
     (
         ( 0.958333 0.645833 0.110931 )
         ( 0.0416667 0.354167 0.0450732 )
     )
  1 1 1 1 
 )

 hex ( 12 14 8 16 13 15 10 17 ) ( 74 48 1 ) 
 edgeGrading
 (
 33.3333 33.3333 33.3333 33.3333 
     (
         ( 0.958333 0.645833 0.110931 )
         ( 0.0416667 0.354167 0.0450732 )
     )
 0.0716427 0.0716427 
     (
         ( 0.958333 0.645833 0.110931 )
         ( 0.0416667 0.354167 0.0450732 )
     )
  1 1 1 1 
 )
);

edges
(
 arc 3 2 ( -7.48528 8.48528 0 )
 arc 7 6 ( -7.48528 8.48528 0.3 )
 spline 1 0 
 (
     ( 1 -5.25448e-17 0 ) 
     ( 0.999029 0.00048593 0 ) 
     ( 0.996118 0.00193777 0 ) 
     ( 0.991278 0.00433781 0 ) 
     ( 0.984524 0.00765707 0 ) 
     ( 0.975879 0.011856 0 ) 
     ( 0.965371 0.0168856 0 ) 
     ( 0.953036 0.0226882 0 ) 
     ( 0.938916 0.0291992 0 ) 
     ( 0.923059 0.0363482 0 ) 
     ( 0.905521 0.04406 0 ) 
     ( 0.886363 0.0522563 0 ) 
     ( 0.865654 0.0608564 0 ) 
     ( 0.843469 0.0697779 0 ) 
     ( 0.819889 0.078938 0 ) 
     ( 0.795001 0.0882531 0 ) 
     ( 0.768899 0.0976396 0 ) 
     ( 0.74168 0.107014 0 ) 
     ( 0.71345 0.116291 0 ) 
     ( 0.684318 0.125386 0 ) 
     ( 0.65448 0.134217 0 ) 
     ( 0.624206 0.142746 0 ) 
     ( 0.593426 0.150906 0 ) 
     ( 0.562264 0.158611 0 ) 
     ( 0.530842 0.165774 0 ) 
     ( 0.499286 0.172306 0 ) 
     ( 0.467723 0.178118 0 ) 
     ( 0.436279 0.183123 0 ) 
     ( 0.405081 0.187235 0 ) 
     ( 0.374254 0.190374 0 ) 
     ( 0.343924 0.192464 0 ) 
     ( 0.314214 0.193438 0 ) 
     ( 0.285242 0.193239 0 ) 
     ( 0.257128 0.191822 0 ) 
     ( 0.229985 0.189153 0 ) 
     ( 0.203922 0.185216 0 ) 
     ( 0.179046 0.180006 0 ) 
     ( 0.155457 0.173536 0 ) 
     ( 0.133249 0.165833 0 ) 
     ( 0.112511 0.156938 0 ) 
     ( 0.093326 0.146905 0 ) 
     ( 0.0757697 0.135798 0 ) 
     ( 0.059911 0.123689 0 ) 
     ( 0.0458117 0.110659 0 ) 
     ( 0.0335263 0.0967864 0 ) 
     ( 0.0231017 0.0821532 0 ) 
     ( 0.0145774 0.0668363 0 ) 
     ( 0.00798487 0.0509063 0 ) 
     ( 0.00334827 0.0344252 0 ) 
 )

 spline 5 4 
 (
     ( 1 -5.25448e-17 0.3 ) 
     ( 0.999029 0.00048593 0.3 ) 
     ( 0.996118 0.00193777 0.3 ) 
     ( 0.991278 0.00433781 0.3 ) 
     ( 0.984524 0.00765707 0.3 ) 
     ( 0.975879 0.011856 0.3 ) 
     ( 0.965371 0.0168856 0.3 ) 
     ( 0.953036 0.0226882 0.3 ) 
     ( 0.938916 0.0291992 0.3 ) 
     ( 0.923059 0.0363482 0.3 ) 
     ( 0.905521 0.04406 0.3 ) 
     ( 0.886363 0.0522563 0.3 ) 
     ( 0.865654 0.0608564 0.3 ) 
     ( 0.843469 0.0697779 0.3 ) 
     ( 0.819889 0.078938 0.3 ) 
     ( 0.795001 0.0882531 0.3 ) 
     ( 0.768899 0.0976396 0.3 ) 
     ( 0.74168 0.107014 0.3 ) 
     ( 0.71345 0.116291 0.3 ) 
     ( 0.684318 0.125386 0.3 ) 
     ( 0.65448 0.134217 0.3 ) 
     ( 0.624206 0.142746 0.3 ) 
     ( 0.593426 0.150906 0.3 ) 
     ( 0.562264 0.158611 0.3 ) 
     ( 0.530842 0.165774 0.3 ) 
     ( 0.499286 0.172306 0.3 ) 
     ( 0.467723 0.178118 0.3 ) 
     ( 0.436279 0.183123 0.3 ) 
     ( 0.405081 0.187235 0.3 ) 
     ( 0.374254 0.190374 0.3 ) 
     ( 0.343924 0.192464 0.3 ) 
     ( 0.314214 0.193438 0.3 ) 
     ( 0.285242 0.193239 0.3 ) 
     ( 0.257128 0.191822 0.3 ) 
     ( 0.229985 0.189153 0.3 ) 
     ( 0.203922 0.185216 0.3 ) 
     ( 0.179046 0.180006 0.3 ) 
     ( 0.155457 0.173536 0.3 ) 
     ( 0.133249 0.165833 0.3 ) 
     ( 0.112511 0.156938 0.3 ) 
     ( 0.093326 0.146905 0.3 ) 
     ( 0.0757697 0.135798 0.3 ) 
     ( 0.059911 0.123689 0.3 ) 
     ( 0.0458117 0.110659 0.3 ) 
     ( 0.0335263 0.0967864 0.3 ) 
     ( 0.0231017 0.0821532 0.3 ) 
     ( 0.0145774 0.0668363 0.3 ) 
     ( 0.00798487 0.0509063 0.3 ) 
     ( 0.00334827 0.0344252 0.3 ) 
 )

 arc 3 12 ( -7.48528 -8.48528 0 ) 
 arc 7 13 ( -7.48528 -8.48528 0.3 ) 

 spline 0 16 
 (
     ( 0 0 0 ) 
     ( 0.00128947 -0.0174094 0 ) 
     ( 0.00453703 -0.0342884 0 ) 
     ( 0.00972787 -0.0506001 0 ) 
     ( 0.0168395 -0.066296 0 ) 
     ( 0.0258417 -0.0813171 0 ) 
     ( 0.0366972 -0.0955966 0 ) 
     ( 0.0493612 -0.109062 0 ) 
     ( 0.0637823 -0.121637 0 ) 
     ( 0.0799024 -0.133247 0 ) 
     ( 0.097657 -0.14382 0 ) 
     ( 0.116976 -0.15329 0 ) 
     ( 0.137783 -0.161598 0 ) 
     ( 0.159996 -0.168699 0 ) 
     ( 0.18353 -0.174559 0 ) 
     ( 0.208292 -0.179157 0 ) 
     ( 0.234189 -0.182489 0 ) 
     ( 0.261118 -0.184565 0 ) 
     ( 0.288979 -0.185409 0 ) 
     ( 0.317662 -0.185061 0 ) 
     ( 0.347059 -0.183571 0 ) 
     ( 0.377056 -0.181002 0 ) 
     ( 0.407538 -0.177426 0 ) 
     ( 0.438388 -0.172921 0 ) 
     ( 0.469487 -0.167571 0 ) 
     ( 0.500714 -0.161464 0 ) 
     ( 0.531949 -0.15469 0 ) 
     ( 0.56307 -0.147336 0 ) 
     ( 0.593955 -0.139493 0 ) 
     ( 0.624484 -0.131246 0 ) 
     ( 0.654537 -0.12268 0 ) 
     ( 0.683807 -0.113892 0 ) 
     ( 0.712329 -0.105004 0 ) 
     ( 0.740073 -0.0960901 0 ) 
     ( 0.766928 -0.0872182 0 ) 
     ( 0.792784 -0.0784541 0 ) 
     ( 0.817535 -0.0698617 0 ) 
     ( 0.841078 -0.0615036 0 ) 
     ( 0.863314 -0.0534413 0 ) 
     ( 0.88415 -0.0457356 0 ) 
     ( 0.903496 -0.0384466 0 ) 
     ( 0.921269 -0.031633 0 ) 
     ( 0.937391 -0.0253521 0 ) 
     ( 0.951791 -0.0196592 0 ) 
     ( 0.964405 -0.0146061 0 ) 
     ( 0.975177 -0.0102408 0 ) 
     ( 0.984059 -0.00660629 0 ) 
     ( 0.991009 -0.00373921 0 ) 
     ( 0.995996 -0.00166932 0 ) 
 )

 spline 4 17 
 (
     ( 0 0 0.3 ) 
     ( 0.00128947 -0.0174094 0.3 ) 
     ( 0.00453703 -0.0342884 0.3 ) 
     ( 0.00972787 -0.0506001 0.3 ) 
     ( 0.0168395 -0.066296 0.3 ) 
     ( 0.0258417 -0.0813171 0.3 ) 
     ( 0.0366972 -0.0955966 0.3 ) 
     ( 0.0493612 -0.109062 0.3 ) 
     ( 0.0637823 -0.121637 0.3 ) 
     ( 0.0799024 -0.133247 0.3 ) 
     ( 0.097657 -0.14382 0.3 ) 
     ( 0.116976 -0.15329 0.3 ) 
     ( 0.137783 -0.161598 0.3 ) 
     ( 0.159996 -0.168699 0.3 ) 
     ( 0.18353 -0.174559 0.3 ) 
     ( 0.208292 -0.179157 0.3 ) 
     ( 0.234189 -0.182489 0.3 ) 
     ( 0.261118 -0.184565 0.3 ) 
     ( 0.288979 -0.185409 0.3 ) 
     ( 0.317662 -0.185061 0.3 ) 
     ( 0.347059 -0.183571 0.3 ) 
     ( 0.377056 -0.181002 0.3 ) 
     ( 0.407538 -0.177426 0.3 ) 
     ( 0.438388 -0.172921 0.3 ) 
     ( 0.469487 -0.167571 0.3 ) 
     ( 0.500714 -0.161464 0.3 ) 
     ( 0.531949 -0.15469 0.3 ) 
     ( 0.56307 -0.147336 0.3 ) 
     ( 0.593955 -0.139493 0.3 ) 
     ( 0.624484 -0.131246 0.3 ) 
     ( 0.654537 -0.12268 0.3 ) 
     ( 0.683807 -0.113892 0.3 ) 
     ( 0.712329 -0.105004 0.3 ) 
     ( 0.740073 -0.0960901 0.3 ) 
     ( 0.766928 -0.0872182 0.3 ) 
     ( 0.792784 -0.0784541 0.3 ) 
     ( 0.817535 -0.0698617 0.3 ) 
     ( 0.841078 -0.0615036 0.3 ) 
     ( 0.863314 -0.0534413 0.3 ) 
     ( 0.88415 -0.0457356 0.3 ) 
     ( 0.903496 -0.0384466 0.3 ) 
     ( 0.921269 -0.031633 0.3 ) 
     ( 0.937391 -0.0253521 0.3 ) 
     ( 0.951791 -0.0196592 0.3 ) 
     ( 0.964405 -0.0146061 0.3 ) 
     ( 0.975177 -0.0102408 0.3 ) 
     ( 0.984059 -0.00660629 0.3 ) 
     ( 0.991009 -0.00373921 0.3 ) 
     ( 0.995996 -0.00166932 0.3 ) 
 )

);

faces
(
);

faces
(
);

defaultPatch
{
 name frontAndBack;
 type empty;
}

boundary
(
inlet
 {
     type patch; 
     faces 
     ( 
         ( 9 2 6 11 ) 
         ( 2 3 7 6 ) 
         ( 3 12 13 7 ) 
         ( 12 15 14 13 ) 
     ); 
 }

outlet
 {
     type patch; 
     faces 
     (
         ( 8 9 10 11 ) 
         ( 15 8 10 14 ) 
     );
 }

walls
 {
     type wall;
     faces
     (
         ( 0 1 5 4 )
         ( 0 4 17 16 )
     );
 }

interface1
 {
     type patch;
     faces
     (
         ( 1 8 10 5 )
     );
 }
interface2
 {
     type patch;
     faces
     (
         ( 16 17 10 8 )
     );
 }
);
mergePatchPairs
(
 ( interface1 interface2 )
);
